# generated using pymatgen
data_SiO2
_symmetry_space_group_name_H-M   'P 1'
_cell_length_a   8.59317457
_cell_length_b   8.65679695
_cell_length_c   16.44420525
_cell_angle_alpha   91.46176407
_cell_angle_beta   90.02251179
_cell_angle_gamma   119.72170145
_symmetry_Int_Tables_number   1
_chemical_formula_structural   SiO2
_chemical_formula_sum   'Si24 O48'
_cell_volume   1061.87920441
_cell_formula_units_Z   24
loop_
 _symmetry_equiv_pos_site_id
 _symmetry_equiv_pos_as_xyz
  1  'x, y, z'
loop_
 _atom_type_symbol
 _atom_type_oxidation_number
  Si4+  4.0
  O2-  -2.0
loop_
 _atom_site_type_symbol
 _atom_site_label
 _atom_site_symmetry_multiplicity
 _atom_site_fract_x
 _atom_site_fract_y
 _atom_site_fract_z
 _atom_site_occupancy
  Si4+  Si0  1  0.69032449  0.61164914  0.83519541  1
  Si4+  Si1  1  0.33156417  0.93424590  0.81405133  1
  Si4+  Si2  1  0.00425000  0.29846233  0.85177248  1
  Si4+  Si3  1  0.02600565  0.63531967  0.91767000  1
  Si4+  Si4  1  0.66000983  0.93930600  0.88735444  1
  Si4+  Si5  1  0.34527207  0.27241893  0.88441305  1
  Si4+  Si6  1  0.63758284  0.61161287  0.64833212  1
  Si4+  Si7  1  0.94677836  0.59813807  0.56206879  1
  Si4+  Si8  1  0.28082920  0.93166957  0.62665354  1
  Si4+  Si9  1  0.64456040  0.95737462  0.59346201  1
  Si4+  Si10  1  0.95275320  0.29953807  0.66405831  1
  Si4+  Si11  1  0.27887142  0.28398632  0.59529644  1
  Si4+  Si12  1  0.99747674  0.59412665  0.37447719  1
  Si4+  Si13  1  0.69693371  0.95625867  0.40580432  1
  Si4+  Si14  1  0.33233891  0.28347810  0.40847966  1
  Si4+  Si15  1  0.66170823  0.61056992  0.33210617  1
  Si4+  Si16  1  0.35134677  0.95540026  0.35288415  1
  Si4+  Si17  1  0.01109122  0.26436528  0.31569812  1
  Si4+  Si18  1  0.61118852  0.61478044  0.14518802  1
  Si4+  Si19  1  0.97169332  0.63072847  0.10529185  1
  Si4+  Si20  1  0.30101190  0.96238229  0.16557249  1
  Si4+  Si21  1  0.60551984  0.93893062  0.07457805  1
  Si4+  Si22  1  0.95683187  0.26640039  0.12839014  1
  Si4+  Si23  1  0.29475263  0.27158740  0.07111274  1
  O2-  O24  1  0.49143899  0.47545694  0.86597375  1
  O2-  O25  1  0.17356331  0.81120187  0.87431309  1
  O2-  O26  1  0.81685970  0.14346024  0.88491596  1
  O2-  O27  1  0.83133164  0.56572996  0.87656698  1
  O2-  O28  1  0.07273874  0.47617746  0.90865728  1
  O2-  O29  1  0.50008451  0.90189756  0.82426350  1
  O2-  O30  1  0.73998063  0.81183831  0.86165720  1
  O2-  O31  1  0.15083937  0.23438590  0.85412172  1
  O2-  O32  1  0.39638085  0.14070897  0.83532433  1
  O2-  O33  1  0.70127821  0.59342825  0.73793190  1
  O2-  O34  1  0.25827429  0.88528100  0.72172180  1
  O2-  O35  1  0.97836560  0.34416574  0.76015321  1
  O2-  O36  1  0.74974060  0.56790290  0.58185312  1
  O2-  O37  1  0.42703563  0.47327682  0.63453738  1
  O2-  O38  1  0.99452756  0.47748218  0.61823276  1
  O2-  O39  1  0.43491405  0.89841103  0.58832734  1
  O2-  O40  1  0.09415945  0.80469180  0.57917777  1
  O2-  O41  1  0.67235502  0.81070584  0.63931925  1
  O2-  O42  1  0.08723274  0.23072742  0.63386083  1
  O2-  O43  1  0.74961508  0.14390123  0.64440108  1
  O2-  O44  1  0.33321887  0.13600791  0.61590917  1
  O2-  O45  1  0.94894671  0.54335065  0.46819137  1
  O2-  O46  1  0.72306401  0.97987967  0.50301093  1
  O2-  O47  1  0.26569418  0.29810204  0.49827801  1
  O2-  O48  1  0.81953653  0.56103034  0.32586619  1
  O2-  O49  1  0.06891508  0.47052330  0.33313260  1
  O2-  O50  1  0.49253408  0.89534485  0.38094495  1
  O2-  O51  1  0.74410826  0.80695742  0.37356803  1
  O2-  O52  1  0.17102797  0.23008645  0.34373444  1
  O2-  O53  1  0.38946807  0.13165640  0.40496737  1
  O2-  O54  1  0.50164877  0.47269794  0.38775320  1
  O2-  O55  1  0.15095380  0.79894437  0.36936322  1
  O2-  O56  1  0.83120990  0.14285695  0.36539832  1
  O2-  O57  1  0.58423224  0.60438486  0.24221158  1
  O2-  O58  1  0.37618715  0.99973727  0.25765641  1
  O2-  O59  1  0.97372861  0.21481406  0.22017520  1
  O2-  O60  1  0.76352103  0.56652340  0.12005932  1
  O2-  O61  1  0.42470995  0.47568471  0.10066658  1
  O2-  O62  1  0.00916806  0.47210103  0.12720552  1
  O2-  O63  1  0.41549012  0.89996509  0.10999764  1
  O2-  O64  1  0.09431422  0.80402436  0.16281050  1
  O2-  O65  1  0.66911236  0.81273922  0.11677638  1
  O2-  O66  1  0.09021495  0.23202079  0.07115187  1
  O2-  O67  1  0.75476289  0.14385764  0.09407637  1
  O2-  O68  1  0.31916161  0.14349670  0.13251050  1
  O2-  O69  1  0.02225555  0.68501882  0.01211264  1
  O2-  O70  1  0.58114098  0.89847782  0.97796469  1
  O2-  O71  1  0.34386276  0.23775651  0.98038495  1
